Version 4
SHEET 1 1476 680
WIRE 48 -224 -48 -224
WIRE 240 -224 144 -224
WIRE 288 -224 240 -224
WIRE 448 -224 368 -224
WIRE 544 -224 448 -224
WIRE 720 -224 624 -224
WIRE -48 -176 -48 -224
WIRE 448 -176 448 -224
WIRE 720 -176 720 -224
WIRE 240 -160 240 -224
WIRE 128 -112 128 -176
WIRE 240 -48 240 -96
WIRE 448 -48 448 -112
WIRE 448 -48 240 -48
WIRE 720 -48 720 -96
WIRE 720 -48 448 -48
WIRE -48 -32 -48 -96
WIRE 720 -32 720 -48
WIRE 128 0 128 -32
WIRE 128 0 -288 0
WIRE 432 0 352 0
WIRE 560 0 496 0
WIRE 272 16 192 16
WIRE 272 32 272 16
WIRE 192 48 192 16
WIRE 192 48 -192 48
WIRE 352 48 352 0
WIRE 384 48 352 48
WIRE 496 48 464 48
WIRE 560 48 560 0
WIRE 96 96 -80 96
WIRE -192 112 -192 48
WIRE 320 112 272 112
WIRE -80 128 -80 96
WIRE -80 128 -160 128
WIRE 32 128 -16 128
WIRE 368 128 352 128
WIRE 464 128 400 128
WIRE 560 128 560 48
WIRE 560 128 464 128
WIRE 576 128 560 128
WIRE 640 128 576 128
WIRE -288 144 -288 0
WIRE -224 144 -288 144
WIRE 128 144 96 144
WIRE 176 144 176 0
WIRE 176 144 128 144
WIRE 288 144 176 144
WIRE -288 160 -288 144
WIRE -16 160 -16 128
WIRE -16 160 -160 160
WIRE 32 160 32 128
WIRE 400 160 400 128
WIRE 400 160 352 160
WIRE 464 160 464 128
WIRE 576 160 576 128
WIRE 640 160 640 128
WIRE -80 176 -80 128
WIRE 128 176 128 144
WIRE 192 176 192 48
WIRE 320 176 272 176
WIRE 368 176 368 128
WIRE -288 272 -288 240
WIRE -192 272 -192 176
WIRE -192 272 -288 272
WIRE -80 272 -80 256
WIRE -80 272 -192 272
WIRE 32 272 32 240
WIRE 32 272 -80 272
WIRE 128 272 128 240
WIRE 128 272 32 272
WIRE 192 272 192 256
WIRE 192 272 128 272
WIRE 272 272 272 256
WIRE 272 272 192 272
WIRE 368 272 368 256
WIRE 368 272 272 272
WIRE 464 272 464 240
WIRE 464 272 368 272
WIRE 576 272 576 240
WIRE 576 272 464 272
WIRE 640 272 640 224
WIRE 640 272 576 272
WIRE 464 304 464 272
FLAG 464 304 0
FLAG -48 -32 0
FLAG 720 -32 0
SYMBOL f 464 160 R0
SYMATTR InstName F1
SYMATTR Value V2 -1
SYMBOL res 560 144 R0
SYMATTR InstName R1
SYMATTR Value 1
SYMBOL voltage -48 -192 R0
WINDOW 123 0 0 Left 0
WINDOW 39 0 0 Left 0
SYMATTR InstName V1
SYMATTR Value 15
SYMBOL res 112 -128 R0
SYMATTR InstName R4
SYMATTR Value 1
SYMBOL voltage 528 -224 R270
WINDOW 123 0 0 Left 0
WINDOW 39 0 0 Left 0
SYMATTR InstName V2
SYMATTR Value 0
SYMBOL res 704 -192 R0
SYMATTR InstName R7
SYMATTR Value 0.5
SYMBOL voltage 192 160 R0
WINDOW 123 0 0 Left 0
WINDOW 39 0 0 Left 0
SYMATTR InstName V4
SYMATTR Value 20
SYMBOL voltage 368 160 R0
WINDOW 123 0 0 Left 0
WINDOW 39 0 0 Left 0
WINDOW 3 -137 150 Left 2
SYMATTR Value PULSE(0 20 0 10m 10m 1n 0 2)
SYMATTR InstName V5
SYMBOL Contrib\\Toshiba\\nmos\\TPWR8004PL_G0_00 48 -176 R270
WINDOW 0 -16 41 VRight 2
WINDOW 38 72 -10 VRight 2
SYMATTR InstName U3
SYMBOL voltage 32 144 R0
WINDOW 123 0 0 Left 0
WINDOW 39 0 0 Left 0
WINDOW 3 -57 153 Left 2
SYMATTR Value PULSE(0 20 0 1p 10u 1p 10u)
SYMATTR InstName V3
SYMBOL res -304 144 R0
SYMATTR InstName R2
SYMATTR Value 10k
SYMBOL OpAmps\\UniversalOpamp2 -192 144 M0
SYMATTR InstName U2
SYMATTR Value2 Avol=1000Meg GBW=100Meg Slew=100Meg
SYMATTR SpiceLine Ilimit=25000m Rail=0 Vos=0
SYMBOL ind 384 -208 M270
WINDOW 0 32 56 VTop 2
WINDOW 3 5 56 VBottom 2
SYMATTR InstName L1
SYMATTR Value 470u
SYMBOL cap 432 -176 R0
SYMATTR InstName C1
SYMATTR Value 100u
SYMBOL schottky 256 -96 R180
WINDOW 0 24 64 Left 2
WINDOW 3 -82 4 Left 2
SYMATTR InstName D1
SYMATTR Value RB238NS100
SYMATTR Description Diode
SYMATTR Type diode
SYMBOL voltage 272 16 R0
WINDOW 123 0 0 Left 0
WINDOW 39 0 0 Left 0
WINDOW 3 38 40 Left 2
SYMATTR InstName V7
SYMATTR Value 0.5
SYMBOL voltage 272 160 R0
WINDOW 123 0 0 Left 0
WINDOW 39 0 0 Left 0
WINDOW 0 36 58 Left 2
SYMATTR InstName V8
SYMATTR Value 0.5
SYMBOL voltage -80 160 R0
WINDOW 123 0 0 Left 0
WINDOW 39 0 0 Left 0
SYMATTR InstName V6
SYMATTR Value 10
SYMBOL res 480 32 R90
WINDOW 0 0 56 VBottom 2
WINDOW 3 32 56 VTop 2
SYMATTR InstName R3
SYMATTR Value 1000k
SYMBOL cap 560 32 R90
WINDOW 0 0 32 VBottom 2
WINDOW 3 32 32 VTop 2
SYMATTR InstName C2
SYMATTR Value 10n
SYMBOL cap 496 -16 R90
WINDOW 0 0 32 VBottom 2
WINDOW 3 32 32 VTop 2
SYMATTR InstName C3
SYMATTR Value 1u
SYMBOL cap 624 160 R0
SYMATTR InstName C5
SYMATTR Value 1u
SYMBOL OpAmps\\OP113 320 80 M0
SYMATTR InstName U4
TEXT -40 -312 Left 2 !.tran 1m
TEXT -40 -296 Left 2 !.model RB238NS100 D(Is=33.003E-9 N=1.0468 Rs=6.8527E-3 Ikf=1.0938 Xti=2 Eg=.84 Cjo=1.7996E-9 M=.53824 Vj=.67337 Isr=3.6589E-8 Nr=1.2200 Bv=100 Tikf=9.0000E-3 Trs1=3.1500E-3 Iave=40 Vpk=100 mfg=Rohm type=Schottky)
