Version 4
SHEET 1 1020 680
WIRE 48 -224 -48 -224
WIRE 208 -224 144 -224
WIRE 384 -224 288 -224
WIRE -48 -176 -48 -224
WIRE 384 -176 384 -224
WIRE 128 -112 128 -176
WIRE -48 -32 -48 -96
WIRE 384 -32 384 -96
WIRE 272 48 192 48
WIRE 272 112 272 48
WIRE 464 128 304 128
WIRE 576 128 464 128
WIRE 128 144 128 -32
WIRE 240 144 128 144
WIRE 336 160 304 160
WIRE 464 160 464 128
WIRE 576 160 576 128
WIRE 192 176 192 48
WIRE 336 176 336 160
WIRE 192 272 192 256
WIRE 272 272 272 176
WIRE 272 272 192 272
WIRE 336 272 336 256
WIRE 336 272 272 272
WIRE 464 272 464 240
WIRE 464 272 336 272
WIRE 576 272 576 240
WIRE 576 272 464 272
WIRE 464 304 464 272
FLAG 464 304 0
FLAG -48 -32 0
FLAG 384 -32 0
SYMBOL f 464 160 R0
SYMATTR InstName F1
SYMATTR Value V2 -1
SYMBOL res 560 144 R0
SYMATTR InstName R1
SYMATTR Value 1
SYMBOL voltage -48 -192 R0
WINDOW 123 0 0 Left 0
WINDOW 39 0 0 Left 0
SYMATTR InstName V1
SYMATTR Value 15
SYMBOL OpAmps\\UniversalOpamp2 272 144 M0
SYMATTR InstName U1
SYMBOL res 112 -128 R0
SYMATTR InstName R4
SYMATTR Value 1
SYMBOL voltage 192 -224 R270
WINDOW 123 0 0 Left 0
WINDOW 39 0 0 Left 0
SYMATTR InstName V2
SYMATTR Value 0
SYMBOL res 368 -192 R0
SYMATTR InstName R7
SYMATTR Value 0.5
SYMBOL voltage 192 160 R0
WINDOW 123 0 0 Left 0
WINDOW 39 0 0 Left 0
SYMATTR InstName V4
SYMATTR Value 20
SYMBOL voltage 336 160 R0
WINDOW 123 0 0 Left 0
WINDOW 39 0 0 Left 0
WINDOW 3 -137 150 Left 2
SYMATTR Value PULSE(0 20 0 10m 10m 1n 0 2)
SYMATTR InstName V5
SYMBOL Contrib\\Toshiba\\nmos\\TPWR8004PL_G0_00 48 -176 R270
SYMATTR InstName U3
TEXT -32 -336 Left 2 !.tran 50m
TEXT 288 288 Left 2 ;DAC Control Voltage
LINE Normal 176 -144 176 -288 2
LINE Normal 400 96 176 -144 2
LINE Normal 400 352 400 96 2
LINE Normal 640 352 400 352 2
LINE Normal 640 48 640 352 2
LINE Normal 432 48 640 48 2
LINE Normal 304 -96 432 48 2
LINE Normal 304 -288 304 -96 2
LINE Normal 176 -288 304 -288 2
