Version 4
SHEET 1 1020 680
WIRE 48 -224 -48 -224
WIRE 288 -224 144 -224
WIRE 352 -224 288 -224
WIRE 464 -224 432 -224
WIRE 672 -224 464 -224
WIRE -48 -176 -48 -224
WIRE 464 -176 464 -224
WIRE 464 -176 384 -176
WIRE 672 -176 672 -224
WIRE 288 -160 288 -224
WIRE 448 -160 288 -160
WIRE 384 -128 384 -176
WIRE 448 -128 448 -160
WIRE 128 -112 128 -176
WIRE -48 -32 -48 -96
WIRE 272 -32 240 -32
WIRE 384 -32 384 -48
WIRE 384 -32 336 -32
WIRE 672 -32 672 -96
WIRE 128 32 128 -32
WIRE 128 32 -112 32
WIRE 240 48 240 -32
WIRE 272 48 240 48
WIRE 384 48 384 -32
WIRE 384 48 352 48
WIRE 16 96 -64 96
WIRE 304 96 16 96
WIRE 304 144 304 96
WIRE 16 160 16 96
WIRE 384 160 384 48
WIRE 384 160 336 160
WIRE 240 176 240 48
WIRE 240 176 48 176
WIRE 272 176 240 176
WIRE -112 192 -112 32
WIRE -16 192 -112 192
WIRE 448 192 448 -48
WIRE 448 192 336 192
WIRE 80 208 48 208
WIRE 448 208 448 192
WIRE -64 224 -64 96
WIRE 80 224 80 208
WIRE -64 320 -64 304
WIRE 16 320 16 224
WIRE 16 320 -64 320
WIRE 80 320 80 304
WIRE 80 320 16 320
WIRE 208 320 80 320
WIRE 304 320 304 208
WIRE 304 320 208 320
WIRE 448 320 448 288
WIRE 448 320 304 320
WIRE 208 352 208 320
FLAG 208 352 0
FLAG -48 -32 0
FLAG 672 -32 0
SYMBOL voltage -48 -192 R0
WINDOW 123 0 0 Left 0
WINDOW 39 0 0 Left 0
SYMATTR InstName V1
SYMATTR Value 15
SYMBOL OpAmps\\UniversalOpamp2 16 192 M0
SYMATTR InstName U1
SYMBOL res 112 -128 R0
SYMATTR InstName R4
SYMATTR Value 1
SYMBOL res 656 -192 R0
SYMATTR InstName R7
SYMATTR Value 0.5
SYMBOL voltage -64 208 R0
WINDOW 123 0 0 Left 0
WINDOW 39 0 0 Left 0
SYMATTR InstName V4
SYMATTR Value 20
SYMBOL voltage 80 208 R0
WINDOW 123 0 0 Left 0
WINDOW 39 0 0 Left 0
WINDOW 3 -137 150 Left 2
SYMATTR Value PULSE(0 20 0 10m 10m 1n 0 2)
SYMATTR InstName V5
SYMBOL Contrib\\Toshiba\\nmos\\TPWR8004PL_G0_00 48 -176 R270
WINDOW 38 89 -24 VRight 2
SYMATTR InstName U3
SYMBOL res 448 -240 R90
WINDOW 0 0 56 VBottom 2
WINDOW 3 32 56 VTop 2
SYMATTR InstName R2
SYMATTR Value 0.01
SYMBOL OpAmps\\UniversalOpamp2 304 176 M0
SYMATTR InstName U2
SYMBOL res 368 32 R90
WINDOW 0 0 56 VBottom 2
WINDOW 3 32 56 VTop 2
SYMATTR InstName R3
SYMATTR Value 100k
SYMBOL res 368 -144 R0
SYMATTR InstName R5
SYMATTR Value 1k
SYMBOL res 432 -144 R0
SYMATTR InstName R6
SYMATTR Value 1k
SYMBOL res 432 192 R0
SYMATTR InstName R8
SYMATTR Value 100k
SYMBOL cap 336 -48 R90
WINDOW 0 0 32 VBottom 2
WINDOW 3 32 32 VTop 2
SYMATTR InstName C1
SYMATTR Value 100p
TEXT -32 -336 Left 2 !.tran 50m
TEXT 120 264 Left 2 ;DAC Control Voltage
